a1-b
  MatStudio         3D                             0

177229  0  0  0  0  0  0  0  0999 V2000
   -0.0002    2.9707   -0.3654 C   0  0  0  0  0  0  0  0  0  1
   -1.2277    3.6780   -0.3515 C   0  0  0  0  0  0  0  0  0  2
    1.2272    5.1065   -0.3239 C   0  0  0  0  0  0  0  0  0  3
   -0.0003    5.8124   -0.3100 C   0  0  0  0  0  0  0  0  0  4
    2.4484    7.2443   -0.2823 C   0  0  0  0  0  0  0  0  0  5
    1.2360    7.9229   -0.2690 C   0  0  0  0  0  0  0  0  0  6
   -2.4474    2.9718   -0.3652 C   0  0  0  0  0  0  0  0  0  7
   -3.6801    3.6799   -0.3513 C   0  0  0  0  0  0  0  0  0  8
   -1.2278    5.1064   -0.3237 C   0  0  0  0  0  0  0  0  0  9
   -2.4513    5.8094   -0.3099 C   0  0  0  0  0  0  0  0  0 10
   -0.0003    7.2442   -0.2821 C   0  0  0  0  0  0  0  0  0 11
   -1.2366    7.9229   -0.2688 C   0  0  0  0  0  0  0  0  0 12
   -4.9010    2.9731   -0.3649 C   0  0  0  0  0  0  0  0  0 13
   -6.1292    3.6810   -0.3509 C   0  0  0  0  0  0  0  0  0 14
   -3.6803    5.1013   -0.3235 C   0  0  0  0  0  0  0  0  0 15
   -4.9098    5.8033   -0.3097 C   0  0  0  0  0  0  0  0  0 16
   -2.4490    7.2442   -0.2819 C   0  0  0  0  0  0  0  0  0 17
   -3.7081    7.9224   -0.2686 C   0  0  0  0  0  0  0  0  0 18
   -7.3582    2.9680   -0.3648 C   0  0  0  0  0  0  0  0  0 19
   -8.5932    3.6782   -0.3508 C   0  0  0  0  0  0  0  0  0 20
   -6.1268    5.0979   -0.3234 C   0  0  0  0  0  0  0  0  0 21
   -7.3824    5.8045   -0.3095 C   0  0  0  0  0  0  0  0  0 22
   -4.8994    7.2468   -0.2816 C   0  0  0  0  0  0  0  0  0 23
   -6.1787    7.9301   -0.2682 C   0  0  0  0  0  0  0  0  0 24
   -9.7942    2.9530   -0.3648 C   0  0  0  0  0  0  0  0  0 25
   -8.5613    5.1025   -0.3231 C   0  0  0  0  0  0  0  0  0 26
   -7.3428    7.2537   -0.2812 C   0  0  0  0  0  0  0  0  0 27
    7.3425   -6.9894   -0.5602 C   0  0  0  0  0  0  0  0  0 28
    8.5611   -4.8382   -0.5184 C   0  0  0  0  0  0  0  0  0 29
    9.7939   -2.6886   -0.4766 C   0  0  0  0  0  0  0  0  0 30
   11.0401   -0.5437   -0.4349 C   0  0  0  0  0  0  0  0  0 31
    6.1785   -7.6658   -0.5733 C   0  0  0  0  0  0  0  0  0 32
    4.8991   -6.9825   -0.5599 C   0  0  0  0  0  0  0  0  0 33
    7.3821   -5.5402   -0.5320 C   0  0  0  0  0  0  0  0  0 34
    6.1265   -4.8335   -0.5181 C   0  0  0  0  0  0  0  0  0 35
    8.5930   -3.4138   -0.4907 C   0  0  0  0  0  0  0  0  0 36
    7.3579   -2.7037   -0.4767 C   0  0  0  0  0  0  0  0  0 37
    9.8120   -1.2980   -0.4495 C   0  0  0  0  0  0  0  0  0 38
    8.5810   -0.5795   -0.4354 C   0  0  0  0  0  0  0  0  0 39
   11.0401    0.8086   -0.4086 C   0  0  0  0  0  0  0  0  0 40
    9.8119    1.5629   -0.3938 C   0  0  0  0  0  0  0  0  0 41
    3.7079   -7.6581   -0.5729 C   0  0  0  0  0  0  0  0  0 42
    2.4487   -6.9798   -0.5596 C   0  0  0  0  0  0  0  0  0 43
    4.9095   -5.5389   -0.5317 C   0  0  0  0  0  0  0  0  0 44
    3.6801   -4.8370   -0.5179 C   0  0  0  0  0  0  0  0  0 45
    6.1290   -3.4167   -0.4905 C   0  0  0  0  0  0  0  0  0 46
    4.9008   -2.7088   -0.4766 C   0  0  0  0  0  0  0  0  0 47
    7.3588   -1.2881   -0.4491 C   0  0  0  0  0  0  0  0  0 48
    6.1236   -0.5753   -0.4351 C   0  0  0  0  0  0  0  0  0 49
    8.5810    0.8443   -0.4077 C   0  0  0  0  0  0  0  0  0 50
    7.3587    1.5528   -0.3937 C   0  0  0  0  0  0  0  0  0 51
    9.7938    2.9535   -0.3667 C   0  0  0  0  0  0  0  0  0 52
    8.5928    3.6786   -0.3524 C   0  0  0  0  0  0  0  0  0 53
    1.2364   -7.6585   -0.5727 C   0  0  0  0  0  0  0  0  0 54
    0.0000   -6.9799   -0.5594 C   0  0  0  0  0  0  0  0  0 55
    2.4510   -5.5451   -0.5316 C   0  0  0  0  0  0  0  0  0 56
    1.2275   -4.8421   -0.5178 C   0  0  0  0  0  0  0  0  0 57
    3.6799   -3.4156   -0.4902 C   0  0  0  0  0  0  0  0  0 58
    2.4471   -2.7074   -0.4763 C   0  0  0  0  0  0  0  0  0 59
    4.9017   -1.2832   -0.4488 C   0  0  0  0  0  0  0  0  0 60
    3.6764   -0.5763   -0.4349 C   0  0  0  0  0  0  0  0  0 61
    6.1236    0.8400   -0.4075 C   0  0  0  0  0  0  0  0  0 62
    4.9016    1.5478   -0.3936 C   0  0  0  0  0  0  0  0  0 63
    7.3578    2.9684   -0.3661 C   0  0  0  0  0  0  0  0  0 64
    6.1288    3.6814   -0.3521 C   0  0  0  0  0  0  0  0  0 65
    8.5609    5.1029   -0.3247 C   0  0  0  0  0  0  0  0  0 66
    7.3818    5.8049   -0.3109 C   0  0  0  0  0  0  0  0  0 67
   -1.2362   -7.6586   -0.5725 C   0  0  0  0  0  0  0  0  0 68
   -2.4487   -6.9799   -0.5591 C   0  0  0  0  0  0  0  0  0 69
    0.0000   -5.5481   -0.5315 C   0  0  0  0  0  0  0  0  0 70
   -1.2275   -4.8421   -0.5176 C   0  0  0  0  0  0  0  0  0 71
    1.2275   -3.4136   -0.4900 C   0  0  0  0  0  0  0  0  0 72
   -0.0001   -2.7064   -0.4761 C   0  0  0  0  0  0  0  0  0 73
    2.4475   -1.2861   -0.4486 C   0  0  0  0  0  0  0  0  0 74
    1.2263   -0.5797   -0.4347 C   0  0  0  0  0  0  0  0  0 75
    3.6764    0.8408   -0.4073 C   0  0  0  0  0  0  0  0  0 76
    2.4474    1.5506   -0.3933 C   0  0  0  0  0  0  0  0  0 77
    4.9007    2.9734   -0.3658 C   0  0  0  0  0  0  0  0  0 78
    3.6797    3.6801   -0.3519 C   0  0  0  0  0  0  0  0  0 79
    6.1262    5.0982   -0.3245 C   0  0  0  0  0  0  0  0  0 80
    4.9092    5.8035   -0.3107 C   0  0  0  0  0  0  0  0  0 81
    7.3422    7.2541   -0.2826 C   0  0  0  0  0  0  0  0  0 82
    6.1781    7.9305   -0.2693 C   0  0  0  0  0  0  0  0  0 83
   -3.7077   -7.6582   -0.5722 C   0  0  0  0  0  0  0  0  0 84
   -4.8991   -6.9827   -0.5590 C   0  0  0  0  0  0  0  0  0 85
   -2.4510   -5.5452   -0.5312 C   0  0  0  0  0  0  0  0  0 86
   -3.6801   -4.8372   -0.5173 C   0  0  0  0  0  0  0  0  0 87
   -1.2275   -3.4137   -0.4897 C   0  0  0  0  0  0  0  0  0 88
   -2.4473   -2.7076   -0.4758 C   0  0  0  0  0  0  0  0  0 89
   -0.0001   -1.2882   -0.4484 C   0  0  0  0  0  0  0  0  0 90
   -1.2266   -0.5797   -0.4345 C   0  0  0  0  0  0  0  0  0 91
    1.2263    0.8441   -0.4070 C   0  0  0  0  0  0  0  0  0 92
   -0.0002    1.5525   -0.3930 C   0  0  0  0  0  0  0  0  0 93
    2.4470    2.9719   -0.3656 C   0  0  0  0  0  0  0  0  0 94
    1.2273    3.6780   -0.3517 C   0  0  0  0  0  0  0  0  0 95
    3.6799    5.1015   -0.3242 C   0  0  0  0  0  0  0  0  0 96
    2.4507    5.8096   -0.3103 C   0  0  0  0  0  0  0  0  0 97
    4.8988    7.2470   -0.2825 C   0  0  0  0  0  0  0  0  0 98
    3.7075    7.9226   -0.2692 C   0  0  0  0  0  0  0  0  0 99
   -6.1783   -7.6661   -0.5722 C   0  0  0  0  0  0  0  0  0100
   -7.3425   -6.9898   -0.5589 C   0  0  0  0  0  0  0  0  0101
   -4.9095   -5.5392   -0.5308 C   0  0  0  0  0  0  0  0  0102
   -6.1265   -4.8339   -0.5170 C   0  0  0  0  0  0  0  0  0103
   -3.6799   -3.4158   -0.4895 C   0  0  0  0  0  0  0  0  0104
   -4.9010   -2.7090   -0.4756 C   0  0  0  0  0  0  0  0  0105
   -2.4477   -1.2863   -0.4482 C   0  0  0  0  0  0  0  0  0106
   -3.6767   -0.5764   -0.4343 C   0  0  0  0  0  0  0  0  0107
   -1.2266    0.8440   -0.4068 C   0  0  0  0  0  0  0  0  0108
   -2.4478    1.5506   -0.3929 C   0  0  0  0  0  0  0  0  0109
   -7.3821   -5.5405   -0.5306 C   0  0  0  0  0  0  0  0  0110
   -8.5611   -4.8386   -0.5168 C   0  0  0  0  0  0  0  0  0111
   -6.1290   -3.4170   -0.4893 C   0  0  0  0  0  0  0  0  0112
   -7.3581   -2.7041   -0.4753 C   0  0  0  0  0  0  0  0  0113
   -4.9019   -1.2835   -0.4479 C   0  0  0  0  0  0  0  0  0114
   -6.1238   -0.5757   -0.4340 C   0  0  0  0  0  0  0  0  0115
   -3.6765    0.8405   -0.4066 C   0  0  0  0  0  0  0  0  0116
   -4.9020    1.5477   -0.3926 C   0  0  0  0  0  0  0  0  0117
   -8.5930   -3.4143   -0.4891 C   0  0  0  0  0  0  0  0  0118
   -9.7941   -2.6892   -0.4748 C   0  0  0  0  0  0  0  0  0119
   -7.3590   -1.2885   -0.4477 C   0  0  0  0  0  0  0  0  0120
   -8.5812   -0.5799   -0.4338 C   0  0  0  0  0  0  0  0  0121
   -6.1238    0.8395   -0.4064 C   0  0  0  0  0  0  0  0  0122
   -7.3591    1.5524   -0.3923 C   0  0  0  0  0  0  0  0  0123
   -9.8122   -1.2985   -0.4477 C   0  0  0  0  0  0  0  0  0124
  -11.0403   -0.5443   -0.4329 C   0  0  0  0  0  0  0  0  0125
   -8.5812    0.8438   -0.4061 C   0  0  0  0  0  0  0  0  0126
   -9.8123    1.5623   -0.3919 C   0  0  0  0  0  0  0  0  0127
  -11.0403    0.8081   -0.4065 C   0  0  0  0  0  0  0  0  0128
    1.2367    9.0088   -0.2478 H   0  0  0  0  0  0  0  0  0129
   -1.2373    9.0087   -0.2476 H   0  0  0  0  0  0  0  0  0130
   -3.7090    9.0085   -0.2474 H   0  0  0  0  0  0  0  0  0131
   -6.1737    9.0152   -0.2470 H   0  0  0  0  0  0  0  0  0132
  -10.7358    3.4947   -0.3542 H   0  0  0  0  0  0  0  0  0133
   -9.5044    5.6418   -0.3125 H   0  0  0  0  0  0  0  0  0134
   -8.2881    7.7868   -0.2708 H   0  0  0  0  0  0  0  0  0135
    8.2879   -7.5225   -0.5707 H   0  0  0  0  0  0  0  0  0136
    9.5041   -5.3774   -0.5290 H   0  0  0  0  0  0  0  0  0137
   10.7356   -3.2304   -0.4873 H   0  0  0  0  0  0  0  0  0138
   11.9770   -1.0914   -0.4457 H   0  0  0  0  0  0  0  0  0139
    6.1735   -8.7509   -0.5945 H   0  0  0  0  0  0  0  0  0140
   11.9769    1.3564   -0.3980 H   0  0  0  0  0  0  0  0  0141
    3.7088   -8.7441   -0.5941 H   0  0  0  0  0  0  0  0  0142
   10.7354    3.4953   -0.3562 H   0  0  0  0  0  0  0  0  0143
    1.2371   -8.7444   -0.5939 H   0  0  0  0  0  0  0  0  0144
    9.5038    5.6423   -0.3142 H   0  0  0  0  0  0  0  0  0145
   -1.2369   -8.7445   -0.5936 H   0  0  0  0  0  0  0  0  0146
    8.2875    7.7872   -0.2723 H   0  0  0  0  0  0  0  0  0147
    6.1731    9.0155   -0.2482 H   0  0  0  0  0  0  0  0  0148
   -3.7086   -8.7443   -0.5934 H   0  0  0  0  0  0  0  0  0149
    3.7084    9.0087   -0.2481 H   0  0  0  0  0  0  0  0  0150
   -6.1733   -8.7512   -0.5933 H   0  0  0  0  0  0  0  0  0151
   -8.2877   -7.5229   -0.5692 H   0  0  0  0  0  0  0  0  0152
   -9.5041   -5.3779   -0.5273 H   0  0  0  0  0  0  0  0  0153
  -10.7356   -3.2310   -0.4853 H   0  0  0  0  0  0  0  0  0154
  -11.9772   -1.0920   -0.4435 H   0  0  0  0  0  0  0  0  0155
  -11.9773    1.3557   -0.3958 H   0  0  0  0  0  0  0  0  0156
   -4.8342   -0.4610    2.8523 C   0  0  0  0  0  0  0  0  0157
   -3.7549   -1.7998    2.8675 S   0  0  0  0  0  0  0  0  0158
   -2.3946   -0.7364    2.7803 C   0  0  0  0  0  0  0  0  0159
   -2.7697    0.5793    2.7552 C   0  0  0  0  0  0  0  0  0160
   -4.1827    0.7359    2.7954 C   0  0  0  0  0  0  0  0  0161
   -1.0562   -1.2746    2.7293 C   0  0  0  0  0  0  0  0  0162
    0.0009   -0.4248    2.7590 O   0  0  0  0  0  0  0  0  0163
    1.0577   -1.2749    2.7290 C   0  0  0  0  0  0  0  0  0164
    0.6915   -2.5120    2.6762 N   0  0  0  0  0  0  0  0  0165
   -0.6904   -2.5118    2.6763 N   0  0  0  0  0  0  0  0  0166
   -2.0590    1.3939    2.6958 H   0  0  0  0  0  0  0  0  0167
   -4.6883    1.6923    2.7688 H   0  0  0  0  0  0  0  0  0168
    2.3963   -0.7372    2.7799 C   0  0  0  0  0  0  0  0  0169
    3.7562   -1.8013    2.8655 S   0  0  0  0  0  0  0  0  0170
    2.7721    0.5784    2.7559 C   0  0  0  0  0  0  0  0  0171
    4.1851    0.7343    2.7955 C   0  0  0  0  0  0  0  0  0172
    4.8360   -0.4629    2.8512 C   0  0  0  0  0  0  0  0  0173
    2.0616    1.3933    2.6974 H   0  0  0  0  0  0  0  0  0174
    4.6911    1.6905    2.7700 H   0  0  0  0  0  0  0  0  0175
   -5.8995   -0.6371    2.8834 H   0  0  0  0  0  0  0  0  0176
    5.9014   -0.6395    2.8816 H   0  0  0  0  0  0  0  0  0177
  1  2  4  0  0  0
  1 93  4  0  0  0
  1 95  4  0  0  0
  2  7  4  0  0  0
  2  9  4  0  0  0
  3  4  4  0  0  0
  3 95  4  0  0  0
  3 97  4  0  0  0
  4  9  4  0  0  0
  4 11  4  0  0  0
  5  6  4  0  0  0
  5 97  4  0  0  0
  5 99  4  0  0  0
  6 11  4  0  0  0
  6129  1  0  0  0
  7  8  4  0  0  0
  7109  4  0  0  0
  8 13  4  0  0  0
  8 15  4  0  0  0
  9 10  4  0  0  0
 10 15  4  0  0  0
 10 17  4  0  0  0
 11 12  4  0  0  0
 12 17  4  0  0  0
 12130  1  0  0  0
 13 14  4  0  0  0
 13117  4  0  0  0
 14 19  4  0  0  0
 14 21  4  0  0  0
 15 16  4  0  0  0
 16 21  4  0  0  0
 16 23  4  0  0  0
 17 18  4  0  0  0
 18 23  2  0  0  0
 18131  1  0  0  0
 19 20  4  0  0  0
 19123  4  0  0  0
 20 25  4  0  0  0
 20 26  4  0  0  0
 21 22  4  0  0  0
 22 26  2  0  0  0
 22 27  1  0  0  0
 23 24  1  0  0  0
 24 27  2  0  0  0
 24132  1  0  0  0
 25127  4  0  0  0
 25133  1  0  0  0
 26134  1  0  0  0
 27135  1  0  0  0
 28 32  2  0  0  0
 28 34  1  0  0  0
 28136  1  0  0  0
 29 34  2  0  0  0
 29 36  4  0  0  0
 29137  1  0  0  0
 30 36  4  0  0  0
 30 38  4  0  0  0
 30138  1  0  0  0
 31 38  4  0  0  0
 31 40  2  0  0  0
 31139  1  0  0  0
 32 33  1  0  0  0
 32140  1  0  0  0
 33 42  2  0  0  0
 33 44  4  0  0  0
 34 35  4  0  0  0
 35 44  4  0  0  0
 35 46  4  0  0  0
 36 37  4  0  0  0
 37 46  4  0  0  0
 37 48  4  0  0  0
 38 39  4  0  0  0
 39 48  4  0  0  0
 39 50  4  0  0  0
 40 41  4  0  0  0
 40141  1  0  0  0
 41 50  4  0  0  0
 41 52  4  0  0  0
 42 43  4  0  0  0
 42142  1  0  0  0
 43 54  4  0  0  0
 43 56  4  0  0  0
 44 45  4  0  0  0
 45 56  4  0  0  0
 45 58  4  0  0  0
 46 47  4  0  0  0
 47 58  4  0  0  0
 47 60  4  0  0  0
 48 49  4  0  0  0
 49 60  4  0  0  0
 49 62  4  0  0  0
 50 51  4  0  0  0
 51 62  4  0  0  0
 51 64  4  0  0  0
 52 53  4  0  0  0
 52143  1  0  0  0
 53 64  4  0  0  0
 53 66  4  0  0  0
 54 55  4  0  0  0
 54144  1  0  0  0
 55 68  4  0  0  0
 55 70  4  0  0  0
 56 57  4  0  0  0
 57 70  4  0  0  0
 57 72  4  0  0  0
 58 59  4  0  0  0
 59 72  4  0  0  0
 59 74  4  0  0  0
 60 61  4  0  0  0
 61 74  4  0  0  0
 61 76  4  0  0  0
 62 63  4  0  0  0
 63 76  4  0  0  0
 63 78  4  0  0  0
 64 65  4  0  0  0
 65 78  4  0  0  0
 65 80  4  0  0  0
 66 67  2  0  0  0
 66145  1  0  0  0
 67 80  4  0  0  0
 67 82  1  0  0  0
 68 69  4  0  0  0
 68146  1  0  0  0
 69 84  4  0  0  0
 69 86  4  0  0  0
 70 71  4  0  0  0
 71 86  4  0  0  0
 71 88  4  0  0  0
 72 73  4  0  0  0
 73 88  4  0  0  0
 73 90  4  0  0  0
 74 75  4  0  0  0
 75 90  4  0  0  0
 75 92  4  0  0  0
 76 77  4  0  0  0
 77 92  4  0  0  0
 77 94  4  0  0  0
 78 79  4  0  0  0
 79 94  4  0  0  0
 79 96  4  0  0  0
 80 81  4  0  0  0
 81 96  4  0  0  0
 81 98  4  0  0  0
 82 83  2  0  0  0
 82147  1  0  0  0
 83 98  1  0  0  0
 83148  1  0  0  0
 84 85  2  0  0  0
 84149  1  0  0  0
 85100  1  0  0  0
 85102  4  0  0  0
 86 87  4  0  0  0
 87102  4  0  0  0
 87104  4  0  0  0
 88 89  4  0  0  0
 89104  4  0  0  0
 89106  4  0  0  0
 90 91  4  0  0  0
 91106  4  0  0  0
 91108  4  0  0  0
 92 93  4  0  0  0
 93108  4  0  0  0
 94 95  4  0  0  0
 96 97  4  0  0  0
 98 99  2  0  0  0
 99150  1  0  0  0
100101  2  0  0  0
100151  1  0  0  0
101110  1  0  0  0
101152  1  0  0  0
102103  4  0  0  0
103110  4  0  0  0
103112  4  0  0  0
104105  4  0  0  0
105112  4  0  0  0
105114  4  0  0  0
106107  4  0  0  0
107114  4  0  0  0
107116  4  0  0  0
108109  4  0  0  0
109116  4  0  0  0
110111  2  0  0  0
111118  4  0  0  0
111153  1  0  0  0
112113  4  0  0  0
113118  4  0  0  0
113120  4  0  0  0
114115  4  0  0  0
115120  4  0  0  0
115122  4  0  0  0
116117  4  0  0  0
117122  4  0  0  0
118119  4  0  0  0
119124  4  0  0  0
119154  1  0  0  0
120121  4  0  0  0
121124  4  0  0  0
121126  4  0  0  0
122123  4  0  0  0
123126  4  0  0  0
124125  4  0  0  0
125128  2  0  0  0
125155  1  0  0  0
126127  4  0  0  0
127128  4  0  0  0
128156  1  0  0  0
157158  1  0  0  0
157161  2  0  0  0
157176  1  0  0  0
158159  1  0  0  0
159160  2  0  0  0
159162  4  0  0  0
160161  4  0  0  0
160167  1  0  0  0
161168  1  0  0  0
162163  1  0  0  0
162166  2  0  0  0
163164  1  0  0  0
164165  2  0  0  0
164169  4  0  0  0
165166  1  0  0  0
169170  1  0  0  0
169171  2  0  0  0
170173  1  0  0  0
171172  4  0  0  0
171174  1  0  0  0
172173  2  0  0  0
172175  1  0  0  0
173177  1  0  0  0
M  END
