a24-a
  MatStudio         3D                             0

191244  0  0  0  0  0  0  0  0999 V2000
    0.0094   -2.6875   -0.6265 C   0  0  0  0  0  0  0  0  0  1
   -1.1996   -3.4259   -0.6354 C   0  0  0  0  0  0  0  0  0  2
    1.2911   -4.7908   -0.6787 C   0  0  0  0  0  0  0  0  0  3
    0.0821   -5.5280   -0.6875 C   0  0  0  0  0  0  0  0  0  4
    2.5666   -6.8964   -0.7308 C   0  0  0  0  0  0  0  0  0  5
    1.3720   -7.6060   -0.7392 C   0  0  0  0  0  0  0  0  0  6
   -2.4369   -2.7514   -0.6140 C   0  0  0  0  0  0  0  0  0  7
   -3.6511   -3.4909   -0.6230 C   0  0  0  0  0  0  0  0  0  8
   -1.1631   -4.8539   -0.6661 C   0  0  0  0  0  0  0  0  0  9
   -2.3682   -5.5881   -0.6750 C   0  0  0  0  0  0  0  0  0 10
    0.1188   -6.9593   -0.7183 C   0  0  0  0  0  0  0  0  0 11
   -1.0997   -7.6695   -0.7266 C   0  0  0  0  0  0  0  0  0 12
   -4.8898   -2.8157   -0.6016 C   0  0  0  0  0  0  0  0  0 13
   -6.0993   -3.5551   -0.6105 C   0  0  0  0  0  0  0  0  0 14
   -3.6150   -4.9119   -0.6535 C   0  0  0  0  0  0  0  0  0 15
   -4.8260   -5.6451   -0.6624 C   0  0  0  0  0  0  0  0  0 16
   -2.3291   -7.0222   -0.7058 C   0  0  0  0  0  0  0  0  0 17
   -3.5704   -7.7326   -0.7140 C   0  0  0  0  0  0  0  0  0 18
   -7.3461   -2.8739   -0.5889 C   0  0  0  0  0  0  0  0  0 19
   -8.5626   -3.6155   -0.5979 C   0  0  0  0  0  0  0  0  0 20
   -6.0606   -4.9713   -0.6410 C   0  0  0  0  0  0  0  0  0 21
   -7.2977   -5.7099   -0.6497 C   0  0  0  0  0  0  0  0  0 22
   -4.7786   -7.0879   -0.6934 C   0  0  0  0  0  0  0  0  0 23
   -6.0400   -7.8039   -0.7016 C   0  0  0  0  0  0  0  0  0 24
   -9.7817   -2.9215   -0.5762 C   0  0  0  0  0  0  0  0  0 25
   -8.4942   -5.0385   -0.6287 C   0  0  0  0  0  0  0  0  0 26
   -7.2210   -7.1576   -0.6811 C   0  0  0  0  0  0  0  0  0 27
    7.0947    7.4578   -0.4499 C   0  0  0  0  0  0  0  0  0 28
    8.3679    5.3387   -0.5023 C   0  0  0  0  0  0  0  0  0 29
    9.6553    3.2217   -0.5548 C   0  0  0  0  0  0  0  0  0 30
   10.9559    1.1096   -0.6073 C   0  0  0  0  0  0  0  0  0 31
    5.9137    8.1041   -0.4294 C   0  0  0  0  0  0  0  0  0 32
    4.6523    7.3880   -0.4376 C   0  0  0  0  0  0  0  0  0 33
    7.1713    6.0102   -0.4813 C   0  0  0  0  0  0  0  0  0 34
    5.9342    5.2715   -0.4900 C   0  0  0  0  0  0  0  0  0 35
    8.4362    3.9157   -0.5331 C   0  0  0  0  0  0  0  0  0 36
    7.2198    3.1741   -0.5421 C   0  0  0  0  0  0  0  0  0 37
    9.7090    1.8321   -0.5848 C   0  0  0  0  0  0  0  0  0 38
    8.4968    1.0821   -0.5939 C   0  0  0  0  0  0  0  0  0 39
   10.9905   -0.2423   -0.6363 C   0  0  0  0  0  0  0  0  0 40
    9.7821   -1.0278   -0.6462 C   0  0  0  0  0  0  0  0  0 41
    3.4441    8.0328   -0.4170 C   0  0  0  0  0  0  0  0  0 42
    2.2026    7.3224   -0.4253 C   0  0  0  0  0  0  0  0  0 43
    4.6996    5.9454   -0.4685 C   0  0  0  0  0  0  0  0  0 44
    3.4886    5.2121   -0.4774 C   0  0  0  0  0  0  0  0  0 45
    5.9730    3.8552   -0.5205 C   0  0  0  0  0  0  0  0  0 46
    4.7634    3.1160   -0.5294 C   0  0  0  0  0  0  0  0  0 47
    7.2569    1.7590   -0.5725 C   0  0  0  0  0  0  0  0  0 48
    6.0403    1.0148   -0.5815 C   0  0  0  0  0  0  0  0  0 49
    8.5332   -0.3411   -0.6245 C   0  0  0  0  0  0  0  0  0 50
    7.3295   -1.0808   -0.6336 C   0  0  0  0  0  0  0  0  0 51
    9.7996   -2.4184   -0.6760 C   0  0  0  0  0  0  0  0  0 52
    8.6176   -3.1741   -0.6855 C   0  0  0  0  0  0  0  0  0 53
    0.9735    7.9697   -0.4044 C   0  0  0  0  0  0  0  0  0 54
   -0.2451    7.2595   -0.4126 C   0  0  0  0  0  0  0  0  0 55
    2.2419    5.8880   -0.4559 C   0  0  0  0  0  0  0  0  0 56
    1.0369    5.1542   -0.4653 C   0  0  0  0  0  0  0  0  0 57
    3.5247    3.7911   -0.5081 C   0  0  0  0  0  0  0  0  0 58
    2.3106    3.0516   -0.5170 C   0  0  0  0  0  0  0  0  0 59
    4.8007    1.6910   -0.5601 C   0  0  0  0  0  0  0  0  0 60
    3.5939    0.9529   -0.5690 C   0  0  0  0  0  0  0  0  0 61
    6.0765   -0.4000   -0.6119 C   0  0  0  0  0  0  0  0  0 62
    4.8731   -1.1390   -0.6209 C   0  0  0  0  0  0  0  0  0 63
    7.3648   -2.4960   -0.6640 C   0  0  0  0  0  0  0  0  0 64
    6.1545   -3.2402   -0.6730 C   0  0  0  0  0  0  0  0  0 65
    8.6221   -4.5987   -0.7159 C   0  0  0  0  0  0  0  0  0 66
    7.4614   -5.3307   -0.7250 C   0  0  0  0  0  0  0  0  0 67
   -1.4983    7.9062   -0.3917 C   0  0  0  0  0  0  0  0  0 68
   -2.6929    7.1966   -0.4003 C   0  0  0  0  0  0  0  0  0 69
   -0.2077    5.8276   -0.4435 C   0  0  0  0  0  0  0  0  0 70
   -1.4184    5.0923   -0.4521 C   0  0  0  0  0  0  0  0  0 71
    1.0731    3.7261   -0.4955 C   0  0  0  0  0  0  0  0  0 72
   -0.1358    2.9877   -0.5043 C   0  0  0  0  0  0  0  0  0 73
    2.3473    1.6308   -0.5475 C   0  0  0  0  0  0  0  0  0 74
    1.1446    0.8932   -0.5564 C   0  0  0  0  0  0  0  0  0 75
    3.6302   -0.4637   -0.5994 C   0  0  0  0  0  0  0  0  0 76
    2.4198   -1.2049   -0.6084 C   0  0  0  0  0  0  0  0  0 77
    4.9087   -2.5641   -0.6515 C   0  0  0  0  0  0  0  0  0 78
    3.7062   -3.3019   -0.6604 C   0  0  0  0  0  0  0  0  0 79
    6.1882   -4.6566   -0.7034 C   0  0  0  0  0  0  0  0  0 80
    4.9897   -5.3929   -0.7124 C   0  0  0  0  0  0  0  0  0 81
    7.4590   -6.7804   -0.7559 C   0  0  0  0  0  0  0  0  0 82
    6.3126   -7.4865   -0.7645 C   0  0  0  0  0  0  0  0  0 83
   -3.9689    7.8423   -0.3792 C   0  0  0  0  0  0  0  0  0 84
   -5.1425    7.1364   -0.3877 C   0  0  0  0  0  0  0  0  0 85
   -2.6588    5.7619   -0.4312 C   0  0  0  0  0  0  0  0  0 86
   -3.8691    5.0230   -0.4398 C   0  0  0  0  0  0  0  0  0 87
   -1.3804    3.6631   -0.4832 C   0  0  0  0  0  0  0  0  0 88
   -2.5822    2.9259   -0.4921 C   0  0  0  0  0  0  0  0  0 89
   -0.0995    1.5699   -0.5350 C   0  0  0  0  0  0  0  0  0 90
   -1.3074    0.8302   -0.5440 C   0  0  0  0  0  0  0  0  0 91
    1.1810   -0.5300   -0.5870 C   0  0  0  0  0  0  0  0  0 92
   -0.0269   -1.2697   -0.5960 C   0  0  0  0  0  0  0  0  0 93
    2.4558   -2.6257   -0.6390 C   0  0  0  0  0  0  0  0  0 94
    1.2546   -3.3629   -0.6480 C   0  0  0  0  0  0  0  0  0 95
    3.7427   -4.7228   -0.6910 C   0  0  0  0  0  0  0  0  0 96
    2.5322   -5.4621   -0.7000 C   0  0  0  0  0  0  0  0  0 97
    5.0163   -6.8362   -0.7433 C   0  0  0  0  0  0  0  0  0 98
    3.8427   -7.5421   -0.7518 C   0  0  0  0  0  0  0  0  0 99
   -6.4389    7.7867   -0.3665 C   0  0  0  0  0  0  0  0  0100
   -7.5853    7.0806   -0.3751 C   0  0  0  0  0  0  0  0  0101
   -5.1160    5.6932   -0.4186 C   0  0  0  0  0  0  0  0  0102
   -6.3146    4.9567   -0.4276 C   0  0  0  0  0  0  0  0  0103
   -3.8325    3.6021   -0.4706 C   0  0  0  0  0  0  0  0  0104
   -5.0351    2.8642   -0.4795 C   0  0  0  0  0  0  0  0  0105
   -2.5462    1.5050   -0.5226 C   0  0  0  0  0  0  0  0  0106
   -3.7565    0.7640   -0.5316 C   0  0  0  0  0  0  0  0  0107
   -1.2710   -0.5930   -0.5746 C   0  0  0  0  0  0  0  0  0108
   -2.4737   -1.3306   -0.5835 C   0  0  0  0  0  0  0  0  0109
   -7.5878    5.6310   -0.4060 C   0  0  0  0  0  0  0  0  0110
   -8.7484    4.8989   -0.4151 C   0  0  0  0  0  0  0  0  0111
   -6.2808    3.5404   -0.4580 C   0  0  0  0  0  0  0  0  0112
   -7.4912    2.7961   -0.4670 C   0  0  0  0  0  0  0  0  0113
   -4.9995    1.4392   -0.5101 C   0  0  0  0  0  0  0  0  0114
   -6.2029    0.7003   -0.5191 C   0  0  0  0  0  0  0  0  0115
   -3.7203   -0.6526   -0.5619 C   0  0  0  0  0  0  0  0  0116
   -4.9271   -1.3908   -0.5709 C   0  0  0  0  0  0  0  0  0117
   -8.7439    3.4743   -0.4455 C   0  0  0  0  0  0  0  0  0118
   -9.9260    2.7186   -0.4550 C   0  0  0  0  0  0  0  0  0119
   -7.4559    1.3810   -0.4974 C   0  0  0  0  0  0  0  0  0120
   -8.6595    0.6413   -0.5065 C   0  0  0  0  0  0  0  0  0121
   -6.1667   -0.7146   -0.5495 C   0  0  0  0  0  0  0  0  0122
   -7.3832   -1.4589   -0.5585 C   0  0  0  0  0  0  0  0  0123
   -9.9085    1.3280   -0.4848 C   0  0  0  0  0  0  0  0  0124
  -11.1169    0.5425   -0.4947 C   0  0  0  0  0  0  0  0  0125
   -8.6231   -0.7819   -0.5371 C   0  0  0  0  0  0  0  0  0126
   -9.8353   -1.5318   -0.5462 C   0  0  0  0  0  0  0  0  0127
  -11.0823   -0.8094   -0.5237 C   0  0  0  0  0  0  0  0  0128
    1.4005   -8.6915   -0.7625 H   0  0  0  0  0  0  0  0  0129
   -1.0727   -8.7550   -0.7499 H   0  0  0  0  0  0  0  0  0130
   -3.5435   -8.8183   -0.7374 H   0  0  0  0  0  0  0  0  0131
   -6.0072   -8.8884   -0.7249 H   0  0  0  0  0  0  0  0  0132
  -10.7091   -3.4872   -0.5830 H   0  0  0  0  0  0  0  0  0133
   -9.4231   -5.6018   -0.6355 H   0  0  0  0  0  0  0  0  0134
   -8.1523   -7.7148   -0.6878 H   0  0  0  0  0  0  0  0  0135
    8.0260    8.0150   -0.4432 H   0  0  0  0  0  0  0  0  0136
    9.2968    5.9021   -0.4955 H   0  0  0  0  0  0  0  0  0137
   10.5827    3.7875   -0.5480 H   0  0  0  0  0  0  0  0  0138
   11.8785    1.6811   -0.6002 H   0  0  0  0  0  0  0  0  0139
    5.8810    9.1886   -0.4061 H   0  0  0  0  0  0  0  0  0140
   11.9411   -0.7656   -0.6528 H   0  0  0  0  0  0  0  0  0141
    3.4173    9.1185   -0.3936 H   0  0  0  0  0  0  0  0  0142
   10.7547   -2.9358   -0.6925 H   0  0  0  0  0  0  0  0  0143
    0.9464    9.0552   -0.3811 H   0  0  0  0  0  0  0  0  0144
    9.5786   -5.1136   -0.7323 H   0  0  0  0  0  0  0  0  0145
   -1.5267    8.9917   -0.3685 H   0  0  0  0  0  0  0  0  0146
    8.4176   -7.2891   -0.7722 H   0  0  0  0  0  0  0  0  0147
    6.3354   -8.5713   -0.7878 H   0  0  0  0  0  0  0  0  0148
   -3.9976    8.9280   -0.3558 H   0  0  0  0  0  0  0  0  0149
    3.8713   -8.6278   -0.7752 H   0  0  0  0  0  0  0  0  0150
   -6.4616    8.8715   -0.3431 H   0  0  0  0  0  0  0  0  0151
   -8.5439    7.5892   -0.3588 H   0  0  0  0  0  0  0  0  0152
   -9.7049    5.4138   -0.3987 H   0  0  0  0  0  0  0  0  0153
  -10.8811    3.2360   -0.4385 H   0  0  0  0  0  0  0  0  0154
  -12.0675    1.0659   -0.4782 H   0  0  0  0  0  0  0  0  0155
  -12.0049   -1.3809   -0.5308 H   0  0  0  0  0  0  0  0  0156
    0.3712   -2.5779    2.5552 C   0  0  0  0  0  0  0  0  0157
    1.4630   -1.7290    2.6100 C   0  0  0  0  0  0  0  0  0158
    1.1495   -0.3330    2.6527 C   0  0  0  0  0  0  0  0  0159
   -0.2057    0.0729    2.6727 C   0  0  0  0  0  0  0  0  0160
   -1.2344   -0.9250    2.6406 C   0  0  0  0  0  0  0  0  0161
   -0.9169   -2.2041    2.5756 N   0  0  0  0  0  0  0  0  0162
   -2.6677   -0.6268    2.6780 C   0  0  0  0  0  0  0  0  0163
   -3.3678    0.5548    2.6533 C   0  0  0  0  0  0  0  0  0164
   -4.7760    0.3632    2.6641 C   0  0  0  0  0  0  0  0  0165
   -5.1201   -0.9565    2.7031 C   0  0  0  0  0  0  0  0  0166
   -3.7516   -1.9904    2.7275 S   0  0  0  0  0  0  0  0  0167
   -2.8833    1.5177    2.6136 H   0  0  0  0  0  0  0  0  0168
   -5.4956    1.1716    2.6342 H   0  0  0  0  0  0  0  0  0169
    2.1340    0.6048    2.6664 N   0  0  0  0  0  0  0  0  0170
    1.7992    1.8676    2.7203 C   0  0  0  0  0  0  0  0  0171
    0.4197    2.2745    2.7758 C   0  0  0  0  0  0  0  0  0172
   -0.5372    1.3865    2.7407 N   0  0  0  0  0  0  0  0  0173
    2.8274   -2.2693    2.6144 C   0  0  0  0  0  0  0  0  0174
    4.0413   -1.6363    2.5115 C   0  0  0  0  0  0  0  0  0175
    5.1485   -2.5309    2.5218 C   0  0  0  0  0  0  0  0  0176
    4.7729   -3.8335    2.6348 C   0  0  0  0  0  0  0  0  0177
    3.0654   -3.9969    2.7442 S   0  0  0  0  0  0  0  0  0178
    4.1282   -0.5649    2.4216 H   0  0  0  0  0  0  0  0  0179
    6.1794   -2.2119    2.4289 H   0  0  0  0  0  0  0  0  0180
    0.5193   -3.6522    2.4843 H   0  0  0  0  0  0  0  0  0181
    0.0401    3.7225    2.8990 C   0  0  0  0  0  0  0  0  0182
   -1.0449    3.8082    2.9337 H   0  0  0  0  0  0  0  0  0183
    0.4615    4.1590    3.8090 H   0  0  0  0  0  0  0  0  0184
    0.4114    4.3134    2.0582 H   0  0  0  0  0  0  0  0  0185
    2.9024    2.8855    2.7605 C   0  0  0  0  0  0  0  0  0186
    2.6541    3.7864    2.1971 H   0  0  0  0  0  0  0  0  0187
    3.0933    3.1881    3.7950 H   0  0  0  0  0  0  0  0  0188
    3.8168    2.4500    2.3569 H   0  0  0  0  0  0  0  0  0189
   -6.1138   -1.3816    2.7127 H   0  0  0  0  0  0  0  0  0190
    5.3978   -4.7140    2.6598 H   0  0  0  0  0  0  0  0  0191
  1  2  4  0  0  0
  1 93  4  0  0  0
  1 95  4  0  0  0
  2  7  4  0  0  0
  2  9  4  0  0  0
  3  4  4  0  0  0
  3 95  4  0  0  0
  3 97  4  0  0  0
  4  9  4  0  0  0
  4 11  4  0  0  0
  5  6  4  0  0  0
  5 97  4  0  0  0
  5 99  4  0  0  0
  6 11  4  0  0  0
  6129  1  0  0  0
  7  8  4  0  0  0
  7109  4  0  0  0
  8 13  4  0  0  0
  8 15  4  0  0  0
  9 10  4  0  0  0
 10 15  4  0  0  0
 10 17  4  0  0  0
 11 12  4  0  0  0
 12 17  4  0  0  0
 12130  1  0  0  0
 13 14  4  0  0  0
 13117  4  0  0  0
 14 19  4  0  0  0
 14 21  4  0  0  0
 15 16  4  0  0  0
 16 21  4  0  0  0
 16 23  4  0  0  0
 17 18  4  0  0  0
 18 23  2  0  0  0
 18131  1  0  0  0
 19 20  4  0  0  0
 19123  4  0  0  0
 20 25  4  0  0  0
 20 26  4  0  0  0
 21 22  4  0  0  0
 22 26  2  0  0  0
 22 27  1  0  0  0
 23 24  1  0  0  0
 24 27  2  0  0  0
 24132  1  0  0  0
 25127  4  0  0  0
 25133  1  0  0  0
 26134  1  0  0  0
 27135  1  0  0  0
 28 32  2  0  0  0
 28 34  1  0  0  0
 28136  1  0  0  0
 29 34  2  0  0  0
 29 36  4  0  0  0
 29137  1  0  0  0
 30 36  4  0  0  0
 30 38  4  0  0  0
 30138  1  0  0  0
 31 38  4  0  0  0
 31 40  2  0  0  0
 31139  1  0  0  0
 32 33  1  0  0  0
 32140  1  0  0  0
 33 42  2  0  0  0
 33 44  4  0  0  0
 34 35  4  0  0  0
 35 44  4  0  0  0
 35 46  4  0  0  0
 36 37  4  0  0  0
 37 46  4  0  0  0
 37 48  4  0  0  0
 38 39  4  0  0  0
 39 48  4  0  0  0
 39 50  4  0  0  0
 40 41  4  0  0  0
 40141  1  0  0  0
 41 50  4  0  0  0
 41 52  4  0  0  0
 42 43  4  0  0  0
 42142  1  0  0  0
 43 54  4  0  0  0
 43 56  4  0  0  0
 44 45  4  0  0  0
 45 56  4  0  0  0
 45 58  4  0  0  0
 46 47  4  0  0  0
 47 58  4  0  0  0
 47 60  4  0  0  0
 48 49  4  0  0  0
 49 60  4  0  0  0
 49 62  4  0  0  0
 50 51  4  0  0  0
 51 62  4  0  0  0
 51 64  4  0  0  0
 52 53  4  0  0  0
 52143  1  0  0  0
 53 64  4  0  0  0
 53 66  4  0  0  0
 54 55  4  0  0  0
 54144  1  0  0  0
 55 68  4  0  0  0
 55 70  4  0  0  0
 56 57  4  0  0  0
 57 70  4  0  0  0
 57 72  4  0  0  0
 58 59  4  0  0  0
 59 72  4  0  0  0
 59 74  4  0  0  0
 60 61  4  0  0  0
 61 74  4  0  0  0
 61 76  4  0  0  0
 62 63  4  0  0  0
 63 76  4  0  0  0
 63 78  4  0  0  0
 64 65  4  0  0  0
 65 78  4  0  0  0
 65 80  4  0  0  0
 66 67  2  0  0  0
 66145  1  0  0  0
 67 80  4  0  0  0
 67 82  1  0  0  0
 68 69  4  0  0  0
 68146  1  0  0  0
 69 84  4  0  0  0
 69 86  4  0  0  0
 70 71  4  0  0  0
 71 86  4  0  0  0
 71 88  4  0  0  0
 72 73  4  0  0  0
 73 88  4  0  0  0
 73 90  4  0  0  0
 74 75  4  0  0  0
 75 90  4  0  0  0
 75 92  4  0  0  0
 76 77  4  0  0  0
 77 92  4  0  0  0
 77 94  4  0  0  0
 78 79  4  0  0  0
 79 94  4  0  0  0
 79 96  4  0  0  0
 80 81  4  0  0  0
 81 96  4  0  0  0
 81 98  4  0  0  0
 82 83  2  0  0  0
 82147  1  0  0  0
 83 98  1  0  0  0
 83148  1  0  0  0
 84 85  2  0  0  0
 84149  1  0  0  0
 85100  1  0  0  0
 85102  4  0  0  0
 86 87  4  0  0  0
 87102  4  0  0  0
 87104  4  0  0  0
 88 89  4  0  0  0
 89104  4  0  0  0
 89106  4  0  0  0
 90 91  4  0  0  0
 91106  4  0  0  0
 91108  4  0  0  0
 92 93  4  0  0  0
 93108  4  0  0  0
 94 95  4  0  0  0
 96 97  4  0  0  0
 98 99  2  0  0  0
 99150  1  0  0  0
100101  2  0  0  0
100151  1  0  0  0
101110  1  0  0  0
101152  1  0  0  0
102103  4  0  0  0
103110  4  0  0  0
103112  4  0  0  0
104105  4  0  0  0
105112  4  0  0  0
105114  4  0  0  0
106107  4  0  0  0
107114  4  0  0  0
107116  4  0  0  0
108109  4  0  0  0
109116  4  0  0  0
110111  2  0  0  0
111118  4  0  0  0
111153  1  0  0  0
112113  4  0  0  0
113118  4  0  0  0
113120  4  0  0  0
114115  4  0  0  0
115120  4  0  0  0
115122  4  0  0  0
116117  4  0  0  0
117122  4  0  0  0
118119  4  0  0  0
119124  4  0  0  0
119154  1  0  0  0
120121  4  0  0  0
121124  4  0  0  0
121126  4  0  0  0
122123  4  0  0  0
123126  4  0  0  0
124125  4  0  0  0
125128  2  0  0  0
125155  1  0  0  0
126127  4  0  0  0
127128  4  0  0  0
128156  1  0  0  0
157158  2  0  0  0
157162  4  0  0  0
157181  1  0  0  0
158159  4  0  0  0
158174  1  0  0  0
159160  4  0  0  0
159170  4  0  0  0
160161  4  0  0  0
160173  4  0  0  0
161162  2  0  0  0
161163  1  0  0  0
163164  2  0  0  0
163167  1  0  0  0
164165  4  0  0  0
164168  1  0  0  0
165166  2  0  0  0
165169  1  0  0  0
166167  1  0  0  0
166190  1  0  0  0
170171  2  0  0  0
171172  4  0  0  0
171186  1  0  0  0
172173  2  0  0  0
172182  1  0  0  0
174175  2  0  0  0
174178  1  0  0  0
175176  4  0  0  0
175179  1  0  0  0
176177  2  0  0  0
176180  1  0  0  0
177178  1  0  0  0
177191  1  0  0  0
182183  1  0  0  0
182184  1  0  0  0
182185  1  0  0  0
186187  1  0  0  0
186188  1  0  0  0
186189  1  0  0  0
M  END
