a29-b
  MatStudio         3D                             0

190243  0  0  0  0  0  0  0  0999 V2000
    0.2324   -2.8233   -0.7637 C   0  0  0  0  0  0  0  0  0  1
    1.4591   -3.5315   -0.7154 C   0  0  0  0  0  0  0  0  0  2
   -0.9997   -4.9562   -0.7008 C   0  0  0  0  0  0  0  0  0  3
    0.2265   -5.6634   -0.6470 C   0  0  0  0  0  0  0  0  0  4
   -2.2242   -7.0911   -0.6111 C   0  0  0  0  0  0  0  0  0  5
   -1.0135   -7.7709   -0.5674 C   0  0  0  0  0  0  0  0  0  6
    2.6804   -2.8278   -0.7172 C   0  0  0  0  0  0  0  0  0  7
    3.9100   -3.5369   -0.6445 C   0  0  0  0  0  0  0  0  0  8
    1.4556   -4.9593   -0.6610 C   0  0  0  0  0  0  0  0  0  9
    2.6766   -5.6640   -0.5917 C   0  0  0  0  0  0  0  0  0 10
    0.2236   -7.0940   -0.5815 C   0  0  0  0  0  0  0  0  0 11
    1.4574   -7.7743   -0.5251 C   0  0  0  0  0  0  0  0  0 12
    5.1303   -2.8311   -0.5882 C   0  0  0  0  0  0  0  0  0 13
    6.3543   -3.5398   -0.4908 C   0  0  0  0  0  0  0  0  0 14
    3.9067   -4.9573   -0.5820 C   0  0  0  0  0  0  0  0  0 15
    5.1326   -5.6606   -0.4920 C   0  0  0  0  0  0  0  0  0 16
    2.6707   -7.0973   -0.5255 C   0  0  0  0  0  0  0  0  0 17
    3.9268   -7.7772   -0.4536 C   0  0  0  0  0  0  0  0  0 18
    7.5818   -2.8281   -0.4110 C   0  0  0  0  0  0  0  0  0 19
    8.8127   -3.5388   -0.3150 C   0  0  0  0  0  0  0  0  0 20
    6.3492   -4.9564   -0.4452 C   0  0  0  0  0  0  0  0  0 21
    7.6007   -5.6639   -0.3488 C   0  0  0  0  0  0  0  0  0 22
    5.1186   -7.1032   -0.4331 C   0  0  0  0  0  0  0  0  0 23
    6.3943   -7.7878   -0.3482 C   0  0  0  0  0  0  0  0  0 24
   10.0119   -2.8151   -0.2386 C   0  0  0  0  0  0  0  0  0 25
    8.7788   -4.9632   -0.2912 C   0  0  0  0  0  0  0  0  0 26
    7.5583   -7.1126   -0.3092 C   0  0  0  0  0  0  0  0  0 27
   -7.0982    7.1438   -0.6243 C   0  0  0  0  0  0  0  0  0 28
   -8.3182    4.9945   -0.6199 C   0  0  0  0  0  0  0  0  0 29
   -9.5530    2.8472   -0.6103 C   0  0  0  0  0  0  0  0  0 30
  -10.8015    0.7044   -0.5847 C   0  0  0  0  0  0  0  0  0 31
   -5.9338    7.8191   -0.6446 C   0  0  0  0  0  0  0  0  0 32
   -4.6564    7.1338   -0.6858 C   0  0  0  0  0  0  0  0  0 33
   -7.1387    5.6947   -0.6444 C   0  0  0  0  0  0  0  0  0 34
   -5.8848    4.9863   -0.6892 C   0  0  0  0  0  0  0  0  0 35
   -8.3513    3.5700   -0.6411 C   0  0  0  0  0  0  0  0  0 36
   -7.1182    2.8585   -0.6926 C   0  0  0  0  0  0  0  0  0 37
   -9.5730    1.4562   -0.6287 C   0  0  0  0  0  0  0  0  0 38
   -8.3443    0.7367   -0.6881 C   0  0  0  0  0  0  0  0  0 39
  -10.8039   -0.6482   -0.5909 C   0  0  0  0  0  0  0  0  0 40
   -9.5778   -1.4033   -0.6464 C   0  0  0  0  0  0  0  0  0 41
   -3.4650    7.8085   -0.6939 C   0  0  0  0  0  0  0  0  0 42
   -2.2075    7.1282   -0.7225 C   0  0  0  0  0  0  0  0  0 43
   -4.6678    5.6903   -0.7117 C   0  0  0  0  0  0  0  0  0 44
   -3.4400    4.9863   -0.7482 C   0  0  0  0  0  0  0  0  0 45
   -5.8885    3.5696   -0.7158 C   0  0  0  0  0  0  0  0  0 46
   -4.6625    2.8601   -0.7500 C   0  0  0  0  0  0  0  0  0 47
   -7.1212    1.4433   -0.7268 C   0  0  0  0  0  0  0  0  0 48
   -5.8880    0.7291   -0.7754 C   0  0  0  0  0  0  0  0  0 49
   -8.3467   -0.6873   -0.7071 C   0  0  0  0  0  0  0  0  0 50
   -7.1261   -1.3973   -0.7616 C   0  0  0  0  0  0  0  0  0 51
   -9.5615   -2.7944   -0.6337 C   0  0  0  0  0  0  0  0  0 52
   -8.3618   -3.5200   -0.6760 C   0  0  0  0  0  0  0  0  0 53
   -0.9951    7.8059   -0.6966 C   0  0  0  0  0  0  0  0  0 54
    0.2398    7.1252   -0.6882 C   0  0  0  0  0  0  0  0  0 55
   -2.2105    5.6939   -0.7638 C   0  0  0  0  0  0  0  0  0 56
   -0.9880    4.9901   -0.7815 C   0  0  0  0  0  0  0  0  0 57
   -3.4416    3.5655   -0.7724 C   0  0  0  0  0  0  0  0  0 58
   -2.2098    2.8563   -0.7932 C   0  0  0  0  0  0  0  0  0 59
   -4.6659    1.4353   -0.7838 C   0  0  0  0  0  0  0  0  0 60
   -3.4418    0.7265   -0.7964 C   0  0  0  0  0  0  0  0  0 61
   -5.8909   -0.6861   -0.8077 C   0  0  0  0  0  0  0  0  0 62
   -4.6708   -1.3958   -0.8173 C   0  0  0  0  0  0  0  0  0 63
   -7.1275   -2.8125   -0.7497 C   0  0  0  0  0  0  0  0  0 64
   -5.8995   -3.5267   -0.7647 C   0  0  0  0  0  0  0  0  0 65
   -8.3320   -4.9444   -0.6347 C   0  0  0  0  0  0  0  0  0 66
   -7.1542   -5.6478   -0.6459 C   0  0  0  0  0  0  0  0  0 67
    1.4746    7.8032   -0.6238 C   0  0  0  0  0  0  0  0  0 68
    2.6850    7.1226   -0.5832 C   0  0  0  0  0  0  0  0  0 69
    0.2393    5.6941   -0.7298 C   0  0  0  0  0  0  0  0  0 70
    1.4648    4.9859   -0.6822 C   0  0  0  0  0  0  0  0  0 71
   -0.9891    3.5607   -0.8073 C   0  0  0  0  0  0  0  0  0 72
    0.2373    2.8523   -0.7605 C   0  0  0  0  0  0  0  0  0 73
   -2.2117    1.4348   -0.8044 C   0  0  0  0  0  0  0  0  0 74
   -0.9910    0.7274   -0.7962 C   0  0  0  0  0  0  0  0  0 75
   -3.4442   -0.6899   -0.8243 C   0  0  0  0  0  0  0  0  0 76
   -2.2155   -1.4004   -0.8108 C   0  0  0  0  0  0  0  0  0 77
   -4.6718   -2.8210   -0.8111 C   0  0  0  0  0  0  0  0  0 78
   -3.4512   -3.5281   -0.7771 C   0  0  0  0  0  0  0  0  0 79
   -5.8986   -4.9430   -0.7071 C   0  0  0  0  0  0  0  0  0 80
   -4.6827   -5.6494   -0.6814 C   0  0  0  0  0  0  0  0  0 81
   -7.1165   -7.0962   -0.5895 C   0  0  0  0  0  0  0  0  0 82
   -5.9532   -7.7736   -0.5767 C   0  0  0  0  0  0  0  0  0 83
    3.9419    7.8005   -0.5064 C   0  0  0  0  0  0  0  0  0 84
    5.1311    7.1237   -0.4537 C   0  0  0  0  0  0  0  0  0 85
    2.6863    5.6882   -0.6091 C   0  0  0  0  0  0  0  0  0 86
    3.9133    4.9788   -0.5591 C   0  0  0  0  0  0  0  0  0 87
    1.4644    3.5579   -0.7053 C   0  0  0  0  0  0  0  0  0 88
    2.6817    2.8505   -0.6564 C   0  0  0  0  0  0  0  0  0 89
    0.2364    1.4341   -0.7734 C   0  0  0  0  0  0  0  0  0 90
    1.4619    0.7245   -0.7335 C   0  0  0  0  0  0  0  0  0 91
   -0.9924   -0.6961   -0.8072 C   0  0  0  0  0  0  0  0  0 92
    0.2342   -1.4052   -0.7785 C   0  0  0  0  0  0  0  0  0 93
   -2.2169   -2.8217   -0.7944 C   0  0  0  0  0  0  0  0  0 94
   -0.9973   -3.5285   -0.7511 C   0  0  0  0  0  0  0  0  0 95
   -3.4526   -4.9488   -0.7223 C   0  0  0  0  0  0  0  0  0 96
   -2.2244   -5.6576   -0.6769 C   0  0  0  0  0  0  0  0  0 97
   -4.6739   -7.0916   -0.6156 C   0  0  0  0  0  0  0  0  0 98
   -3.4838   -7.7681   -0.5850 C   0  0  0  0  0  0  0  0  0 99
    6.4079    7.8063   -0.3704 C   0  0  0  0  0  0  0  0  0100
    7.5698    7.1290   -0.3133 C   0  0  0  0  0  0  0  0  0101
    5.1405    5.6801   -0.4759 C   0  0  0  0  0  0  0  0  0102
    6.3556    4.9740   -0.4223 C   0  0  0  0  0  0  0  0  0103
    3.9121    3.5577   -0.5793 C   0  0  0  0  0  0  0  0  0104
    5.1319    2.8506   -0.5361 C   0  0  0  0  0  0  0  0  0105
    2.6824    1.4299   -0.6845 C   0  0  0  0  0  0  0  0  0106
    3.9102    0.7191   -0.6552 C   0  0  0  0  0  0  0  0  0107
    1.4621   -0.6987   -0.7624 C   0  0  0  0  0  0  0  0  0108
    2.6824   -1.4068   -0.7268 C   0  0  0  0  0  0  0  0  0109
    7.6086    5.6797   -0.3338 C   0  0  0  0  0  0  0  0  0110
    8.7855    4.9772   -0.2722 C   0  0  0  0  0  0  0  0  0111
    6.3572    3.5571   -0.4429 C   0  0  0  0  0  0  0  0  0112
    7.5845    2.8436   -0.3841 C   0  0  0  0  0  0  0  0  0113
    5.1325    1.4250   -0.5591 C   0  0  0  0  0  0  0  0  0114
    6.3529    0.7167   -0.5024 C   0  0  0  0  0  0  0  0  0115
    3.9105   -0.6978   -0.6767 C   0  0  0  0  0  0  0  0  0116
    5.1335   -1.4060   -0.6126 C   0  0  0  0  0  0  0  0  0117
    8.8168    3.5525   -0.2916 C   0  0  0  0  0  0  0  0  0118
   10.0153    2.8269   -0.2209 C   0  0  0  0  0  0  0  0  0119
    7.5849    1.4280   -0.4004 C   0  0  0  0  0  0  0  0  0120
    8.8049    0.7188   -0.3284 C   0  0  0  0  0  0  0  0  0121
    6.3519   -0.6992   -0.5106 C   0  0  0  0  0  0  0  0  0122
    7.5845   -1.4125   -0.4274 C   0  0  0  0  0  0  0  0  0123
   10.0328    1.4359   -0.2347 C   0  0  0  0  0  0  0  0  0124
   11.2577    0.6812   -0.1541 C   0  0  0  0  0  0  0  0  0125
    8.8041   -0.7049   -0.3329 C   0  0  0  0  0  0  0  0  0126
   10.0314   -1.4240   -0.2448 C   0  0  0  0  0  0  0  0  0127
   11.2571   -0.6714   -0.1584 C   0  0  0  0  0  0  0  0  0128
   -1.0159   -8.8557   -0.5155 H   0  0  0  0  0  0  0  0  0129
    1.4553   -8.8591   -0.4738 H   0  0  0  0  0  0  0  0  0130
    3.9243   -8.8625   -0.4078 H   0  0  0  0  0  0  0  0  0131
    6.3865   -8.8724   -0.3137 H   0  0  0  0  0  0  0  0  0132
   10.9503   -3.3576   -0.1663 H   0  0  0  0  0  0  0  0  0133
    9.7187   -5.5028   -0.2173 H   0  0  0  0  0  0  0  0  0134
    8.5010   -7.6462   -0.2427 H   0  0  0  0  0  0  0  0  0135
   -8.0425    7.6775   -0.5907 H   0  0  0  0  0  0  0  0  0136
   -9.2600    5.5344   -0.5815 H   0  0  0  0  0  0  0  0  0137
  -10.4929    3.3900   -0.5662 H   0  0  0  0  0  0  0  0  0138
  -11.7365    1.2536   -0.5412 H   0  0  0  0  0  0  0  0  0139
   -5.9271    8.9042   -0.6282 H   0  0  0  0  0  0  0  0  0140
  -11.7406   -1.1949   -0.5525 H   0  0  0  0  0  0  0  0  0141
   -3.4638    8.8945   -0.6702 H   0  0  0  0  0  0  0  0  0142
  -10.5024   -3.3349   -0.5826 H   0  0  0  0  0  0  0  0  0143
   -0.9948    8.8915   -0.6656 H   0  0  0  0  0  0  0  0  0144
   -9.2751   -5.4814   -0.5856 H   0  0  0  0  0  0  0  0  0145
    1.4751    8.8890   -0.5969 H   0  0  0  0  0  0  0  0  0146
   -8.0623   -7.6274   -0.5553 H   0  0  0  0  0  0  0  0  0147
   -5.9490   -8.8579   -0.5323 H   0  0  0  0  0  0  0  0  0148
    3.9422    8.8866   -0.4866 H   0  0  0  0  0  0  0  0  0149
   -3.4853   -8.8531   -0.5340 H   0  0  0  0  0  0  0  0  0150
    6.4027    8.8914   -0.3531 H   0  0  0  0  0  0  0  0  0151
    8.5136    7.6610   -0.2497 H   0  0  0  0  0  0  0  0  0152
    9.7267    5.5153   -0.2054 H   0  0  0  0  0  0  0  0  0153
   10.9547    3.3678   -0.1509 H   0  0  0  0  0  0  0  0  0154
   12.1925    1.2283   -0.0869 H   0  0  0  0  0  0  0  0  0155
   12.1912   -1.2200   -0.0937 H   0  0  0  0  0  0  0  0  0156
    1.6165   -1.2378    2.5342 C   0  0  0  0  0  0  0  0  0157
    2.0419   -2.5450    2.4853 C   0  0  0  0  0  0  0  0  0158
    3.4530   -2.6735    2.5150 C   0  0  0  0  0  0  0  0  0159
    4.0758   -1.4618    2.5910 C   0  0  0  0  0  0  0  0  0160
    2.9703   -0.1489    2.6227 S   0  0  0  0  0  0  0  0  0161
    1.3645   -3.3887    2.4172 H   0  0  0  0  0  0  0  0  0162
    3.9782   -3.6188    2.4698 H   0  0  0  0  0  0  0  0  0163
   -3.6891   -1.2152    2.4698 C   0  0  0  0  0  0  0  0  0164
   -4.1237   -2.5189    2.4082 C   0  0  0  0  0  0  0  0  0165
   -5.5360   -2.6357    2.4009 C   0  0  0  0  0  0  0  0  0166
   -6.1508   -1.4191    2.4622 C   0  0  0  0  0  0  0  0  0167
   -5.0356   -0.1154    2.5245 S   0  0  0  0  0  0  0  0  0168
   -3.4518   -3.3679    2.3552 H   0  0  0  0  0  0  0  0  0169
   -6.0673   -3.5767    2.3386 H   0  0  0  0  0  0  0  0  0170
   -0.3153    0.4718    2.5565 C   0  0  0  0  0  0  0  0  0171
    0.2419   -0.7816    2.5146 C   0  0  0  0  0  0  0  0  0172
   -1.0390   -1.9661    2.4728 S   0  0  0  0  0  0  0  0  0173
   -2.3106   -0.7706    2.4846 C   0  0  0  0  0  0  0  0  0174
   -1.7437    0.4779    2.5404 C   0  0  0  0  0  0  0  0  0175
    0.1798    1.8640    2.6984 C   0  0  0  0  0  0  0  0  0176
   -1.0265    2.7044    3.1409 C   0  0  0  0  0  0  0  0  0177
   -2.2300    1.8741    2.6730 C   0  0  0  0  0  0  0  0  0178
   -3.3388    2.3043    2.4808 O   0  0  0  0  0  0  0  0  0179
    1.2956    2.2852    2.5284 O   0  0  0  0  0  0  0  0  0180
   -1.0412    2.6746    4.6863 C   0  0  0  0  0  0  0  0  0181
   -1.0152    4.1359    2.6438 C   0  0  0  0  0  0  0  0  0182
   -1.0453    1.6551    5.0786 H   0  0  0  0  0  0  0  0  0183
   -1.9330    3.1896    5.0488 H   0  0  0  0  0  0  0  0  0184
   -0.1560    3.1888    5.0657 H   0  0  0  0  0  0  0  0  0185
   -1.0279    4.1791    1.5584 H   0  0  0  0  0  0  0  0  0186
   -0.1144    4.6432    2.9940 H   0  0  0  0  0  0  0  0  0187
   -1.8946    4.6659    3.0138 H   0  0  0  0  0  0  0  0  0188
    5.1375   -1.2612    2.6169 H   0  0  0  0  0  0  0  0  0189
   -7.2110   -1.2096    2.4583 H   0  0  0  0  0  0  0  0  0190
  1  2  4  0  0  0
  1 93  4  0  0  0
  1 95  4  0  0  0
  2  7  4  0  0  0
  2  9  4  0  0  0
  3  4  4  0  0  0
  3 95  4  0  0  0
  3 97  4  0  0  0
  4  9  4  0  0  0
  4 11  4  0  0  0
  5  6  4  0  0  0
  5 97  4  0  0  0
  5 99  4  0  0  0
  6 11  4  0  0  0
  6129  1  0  0  0
  7  8  4  0  0  0
  7109  4  0  0  0
  8 13  4  0  0  0
  8 15  4  0  0  0
  9 10  4  0  0  0
 10 15  4  0  0  0
 10 17  4  0  0  0
 11 12  4  0  0  0
 12 17  4  0  0  0
 12130  1  0  0  0
 13 14  4  0  0  0
 13117  4  0  0  0
 14 19  4  0  0  0
 14 21  4  0  0  0
 15 16  4  0  0  0
 16 21  4  0  0  0
 16 23  4  0  0  0
 17 18  4  0  0  0
 18 23  2  0  0  0
 18131  1  0  0  0
 19 20  4  0  0  0
 19123  4  0  0  0
 20 25  4  0  0  0
 20 26  4  0  0  0
 21 22  4  0  0  0
 22 26  2  0  0  0
 22 27  1  0  0  0
 23 24  1  0  0  0
 24 27  2  0  0  0
 24132  1  0  0  0
 25127  4  0  0  0
 25133  1  0  0  0
 26134  1  0  0  0
 27135  1  0  0  0
 28 32  2  0  0  0
 28 34  1  0  0  0
 28136  1  0  0  0
 29 34  2  0  0  0
 29 36  4  0  0  0
 29137  1  0  0  0
 30 36  4  0  0  0
 30 38  4  0  0  0
 30138  1  0  0  0
 31 38  4  0  0  0
 31 40  2  0  0  0
 31139  1  0  0  0
 32 33  1  0  0  0
 32140  1  0  0  0
 33 42  2  0  0  0
 33 44  4  0  0  0
 34 35  4  0  0  0
 35 44  4  0  0  0
 35 46  4  0  0  0
 36 37  4  0  0  0
 37 46  4  0  0  0
 37 48  4  0  0  0
 38 39  4  0  0  0
 39 48  4  0  0  0
 39 50  4  0  0  0
 40 41  4  0  0  0
 40141  1  0  0  0
 41 50  4  0  0  0
 41 52  4  0  0  0
 42 43  4  0  0  0
 42142  1  0  0  0
 43 54  4  0  0  0
 43 56  4  0  0  0
 44 45  4  0  0  0
 45 56  4  0  0  0
 45 58  4  0  0  0
 46 47  4  0  0  0
 47 58  4  0  0  0
 47 60  4  0  0  0
 48 49  4  0  0  0
 49 60  4  0  0  0
 49 62  4  0  0  0
 50 51  4  0  0  0
 51 62  4  0  0  0
 51 64  4  0  0  0
 52 53  4  0  0  0
 52143  1  0  0  0
 53 64  4  0  0  0
 53 66  4  0  0  0
 54 55  4  0  0  0
 54144  1  0  0  0
 55 68  4  0  0  0
 55 70  4  0  0  0
 56 57  4  0  0  0
 57 70  4  0  0  0
 57 72  4  0  0  0
 58 59  4  0  0  0
 59 72  4  0  0  0
 59 74  4  0  0  0
 60 61  4  0  0  0
 61 74  4  0  0  0
 61 76  4  0  0  0
 62 63  4  0  0  0
 63 76  4  0  0  0
 63 78  4  0  0  0
 64 65  4  0  0  0
 65 78  4  0  0  0
 65 80  4  0  0  0
 66 67  2  0  0  0
 66145  1  0  0  0
 67 80  4  0  0  0
 67 82  1  0  0  0
 68 69  4  0  0  0
 68146  1  0  0  0
 69 84  4  0  0  0
 69 86  4  0  0  0
 70 71  4  0  0  0
 71 86  4  0  0  0
 71 88  4  0  0  0
 72 73  4  0  0  0
 73 88  4  0  0  0
 73 90  4  0  0  0
 74 75  4  0  0  0
 75 90  4  0  0  0
 75 92  4  0  0  0
 76 77  4  0  0  0
 77 92  4  0  0  0
 77 94  4  0  0  0
 78 79  4  0  0  0
 79 94  4  0  0  0
 79 96  4  0  0  0
 80 81  4  0  0  0
 81 96  4  0  0  0
 81 98  4  0  0  0
 82 83  2  0  0  0
 82147  1  0  0  0
 83 98  1  0  0  0
 83148  1  0  0  0
 84 85  2  0  0  0
 84149  1  0  0  0
 85100  1  0  0  0
 85102  4  0  0  0
 86 87  4  0  0  0
 87102  4  0  0  0
 87104  4  0  0  0
 88 89  4  0  0  0
 89104  4  0  0  0
 89106  4  0  0  0
 90 91  4  0  0  0
 91106  4  0  0  0
 91108  4  0  0  0
 92 93  4  0  0  0
 93108  4  0  0  0
 94 95  4  0  0  0
 96 97  4  0  0  0
 98 99  2  0  0  0
 99150  1  0  0  0
100101  2  0  0  0
100151  1  0  0  0
101110  1  0  0  0
101152  1  0  0  0
102103  4  0  0  0
103110  4  0  0  0
103112  4  0  0  0
104105  4  0  0  0
105112  4  0  0  0
105114  4  0  0  0
106107  4  0  0  0
107114  4  0  0  0
107116  4  0  0  0
108109  4  0  0  0
109116  4  0  0  0
110111  2  0  0  0
111118  4  0  0  0
111153  1  0  0  0
112113  4  0  0  0
113118  4  0  0  0
113120  4  0  0  0
114115  4  0  0  0
115120  4  0  0  0
115122  4  0  0  0
116117  4  0  0  0
117122  4  0  0  0
118119  4  0  0  0
119124  4  0  0  0
119154  1  0  0  0
120121  4  0  0  0
121124  4  0  0  0
121126  4  0  0  0
122123  4  0  0  0
123126  4  0  0  0
124125  4  0  0  0
125128  2  0  0  0
125155  1  0  0  0
126127  4  0  0  0
127128  4  0  0  0
128156  1  0  0  0
157158  2  0  0  0
157161  1  0  0  0
157172  1  0  0  0
158159  4  0  0  0
158162  1  0  0  0
159160  2  0  0  0
159163  1  0  0  0
160161  1  0  0  0
160189  1  0  0  0
164165  2  0  0  0
164168  1  0  0  0
164174  1  0  0  0
165166  4  0  0  0
165169  1  0  0  0
166167  2  0  0  0
166170  1  0  0  0
167168  1  0  0  0
167190  1  0  0  0
171172  2  0  0  0
171175  4  0  0  0
171176  1  0  0  0
172173  1  0  0  0
173174  1  0  0  0
174175  2  0  0  0
175178  1  0  0  0
176177  1  0  0  0
176180  2  0  0  0
177178  1  0  0  0
177181  1  0  0  0
177182  1  0  0  0
178179  2  0  0  0
181183  1  0  0  0
181184  1  0  0  0
181185  1  0  0  0
182186  1  0  0  0
182187  1  0  0  0
182188  1  0  0  0
M  END
