SN-D
  MatStudio         3D                             0

188242  0  0  0  0  0  0  0  0999 V2000
    0.1249   -2.7251   -0.6480 C   0  0  0  0  0  0  0  0  0  1
    1.3196   -3.4864   -0.6345 C   0  0  0  0  0  0  0  0  0  2
   -1.1956   -4.8040   -0.7111 C   0  0  0  0  0  0  0  0  0  3
   -0.0008   -5.5641   -0.6976 C   0  0  0  0  0  0  0  0  0  4
   -2.5099   -6.8854   -0.7741 C   0  0  0  0  0  0  0  0  0  5
   -1.3290   -7.6174   -0.7604 C   0  0  0  0  0  0  0  0  0  6
    2.5690   -2.8353   -0.5965 C   0  0  0  0  0  0  0  0  0  7
    3.7689   -3.5978   -0.5829 C   0  0  0  0  0  0  0  0  0  8
    1.2564   -4.9135   -0.6594 C   0  0  0  0  0  0  0  0  0  9
    2.4473   -5.6705   -0.6459 C   0  0  0  0  0  0  0  0  0 10
   -0.0642   -6.9945   -0.7226 C   0  0  0  0  0  0  0  0  0 11
    1.1406   -7.7277   -0.7084 C   0  0  0  0  0  0  0  0  0 12
    5.0197   -2.9461   -0.5448 C   0  0  0  0  0  0  0  0  0 13
    6.2150   -3.7082   -0.5313 C   0  0  0  0  0  0  0  0  0 14
    3.7062   -5.0179   -0.6077 C   0  0  0  0  0  0  0  0  0 15
    4.9031   -5.7740   -0.5940 C   0  0  0  0  0  0  0  0  0 16
    2.3815   -7.1037   -0.6710 C   0  0  0  0  0  0  0  0  0 17
    3.6091   -7.8375   -0.6563 C   0  0  0  0  0  0  0  0  0 18
    7.4740   -3.0507   -0.4930 C   0  0  0  0  0  0  0  0  0 19
    8.6761   -3.8153   -0.4794 C   0  0  0  0  0  0  0  0  0 20
    6.1498   -5.1236   -0.5561 C   0  0  0  0  0  0  0  0  0 21
    7.3726   -5.8856   -0.5420 C   0  0  0  0  0  0  0  0  0 22
    4.8288   -7.2157   -0.6195 C   0  0  0  0  0  0  0  0  0 23
    6.0764   -7.9555   -0.6045 C   0  0  0  0  0  0  0  0  0 24
    9.9077   -3.1443   -0.4415 C   0  0  0  0  0  0  0  0  0 25
    8.5812   -5.2368   -0.5049 C   0  0  0  0  0  0  0  0  0 26
    7.2690   -7.3316   -0.5681 C   0  0  0  0  0  0  0  0  0 27
   -6.7681    7.5533   -0.6287 C   0  0  0  0  0  0  0  0  0 28
   -8.0804    5.4584   -0.6919 C   0  0  0  0  0  0  0  0  0 29
   -9.4069    3.3660   -0.7554 C   0  0  0  0  0  0  0  0  0 30
  -10.7464    1.2786   -0.8191 C   0  0  0  0  0  0  0  0  0 31
   -5.5755    8.1771   -0.5924 C   0  0  0  0  0  0  0  0  0 32
   -4.3280    7.4373   -0.5774 C   0  0  0  0  0  0  0  0  0 33
   -6.8718    6.1072   -0.6548 C   0  0  0  0  0  0  0  0  0 34
   -5.6489    5.3452   -0.6407 C   0  0  0  0  0  0  0  0  0 35
   -8.1752    4.0369   -0.7174 C   0  0  0  0  0  0  0  0  0 36
   -6.9732    3.2723   -0.7038 C   0  0  0  0  0  0  0  0  0 37
   -9.4865    1.9774   -0.7800 C   0  0  0  0  0  0  0  0  0 38
   -8.2887    1.2047   -0.7667 C   0  0  0  0  0  0  0  0  0 39
  -10.8063   -0.0724   -0.8427 C   0  0  0  0  0  0  0  0  0 40
   -9.6130   -0.8807   -0.8300 C   0  0  0  0  0  0  0  0  0 41
   -3.1082    8.0591   -0.5405 C   0  0  0  0  0  0  0  0  0 42
   -1.8807    7.3254   -0.5258 C   0  0  0  0  0  0  0  0  0 43
   -4.4022    5.9956   -0.6028 C   0  0  0  0  0  0  0  0  0 44
   -3.2054    5.2395   -0.5892 C   0  0  0  0  0  0  0  0  0 45
   -5.7141    3.9298   -0.6655 C   0  0  0  0  0  0  0  0  0 46
   -4.5188    3.1677   -0.6520 C   0  0  0  0  0  0  0  0  0 47
   -7.0367    1.8581   -0.7286 C   0  0  0  0  0  0  0  0  0 48
   -5.8345    1.0909   -0.7150 C   0  0  0  0  0  0  0  0  0 49
   -8.3517   -0.2177   -0.7915 C   0  0  0  0  0  0  0  0  0 50
   -7.1624   -0.9801   -0.7781 C   0  0  0  0  0  0  0  0  0 51
   -9.6565   -2.2709   -0.8539 C   0  0  0  0  0  0  0  0  0 52
   -8.4890   -3.0489   -0.8412 C   0  0  0  0  0  0  0  0  0 53
   -0.6397    7.9493   -0.4885 C   0  0  0  0  0  0  0  0  0 54
    0.5650    7.2162   -0.4743 C   0  0  0  0  0  0  0  0  0 55
   -1.9464    5.8921   -0.5509 C   0  0  0  0  0  0  0  0  0 56
   -0.7555    5.1351   -0.5374 C   0  0  0  0  0  0  0  0  0 57
   -3.2681    3.8194   -0.6140 C   0  0  0  0  0  0  0  0  0 58
   -2.0682    3.0569   -0.6004 C   0  0  0  0  0  0  0  0  0 59
   -4.5828    1.7436   -0.6769 C   0  0  0  0  0  0  0  0  0 60
   -3.3903    0.9827   -0.6635 C   0  0  0  0  0  0  0  0  0 61
   -5.8971   -0.3231   -0.7397 C   0  0  0  0  0  0  0  0  0 62
   -4.7080   -1.0848   -0.7263 C   0  0  0  0  0  0  0  0  0 63
   -7.2241   -2.3945   -0.8028 C   0  0  0  0  0  0  0  0  0 64
   -6.0281   -3.1616   -0.7894 C   0  0  0  0  0  0  0  0  0 65
   -8.5201   -4.4733   -0.8654 C   0  0  0  0  0  0  0  0  0 66
   -7.3736   -5.2272   -0.8528 C   0  0  0  0  0  0  0  0  0 67
    1.8299    7.8391   -0.4364 C   0  0  0  0  0  0  0  0  0 68
    3.0108    7.1070   -0.4227 C   0  0  0  0  0  0  0  0  0 69
    0.5017    5.7857   -0.4993 C   0  0  0  0  0  0  0  0  0 70
    1.6965    5.0256   -0.4858 C   0  0  0  0  0  0  0  0  0 71
   -0.8187    3.7080   -0.5624 C   0  0  0  0  0  0  0  0  0 72
    0.3760    2.9467   -0.5489 C   0  0  0  0  0  0  0  0  0 73
   -2.1315    1.6369   -0.6252 C   0  0  0  0  0  0  0  0  0 74
   -0.9430    0.8767   -0.6118 C   0  0  0  0  0  0  0  0  0 75
   -3.4529   -0.4331   -0.6882 C   0  0  0  0  0  0  0  0  0 76
   -2.2569   -1.1970   -0.6747 C   0  0  0  0  0  0  0  0  0 77
   -4.7702   -2.5090   -0.7512 C   0  0  0  0  0  0  0  0  0 78
   -3.5819   -3.2696   -0.7378 C   0  0  0  0  0  0  0  0  0 79
   -6.0883   -4.5772   -0.8141 C   0  0  0  0  0  0  0  0  0 80
   -4.9040   -5.3362   -0.8008 C   0  0  0  0  0  0  0  0  0 81
   -7.3982   -6.6768   -0.8773 C   0  0  0  0  0  0  0  0  0 82
   -6.2654   -7.4045   -0.8646 C   0  0  0  0  0  0  0  0  0 83
    4.2983    7.7285   -0.3844 C   0  0  0  0  0  0  0  0  0 84
    5.4583    7.0004   -0.3711 C   0  0  0  0  0  0  0  0  0 85
    2.9496    5.6735   -0.4477 C   0  0  0  0  0  0  0  0  0 86
    4.1459    4.9113   -0.4342 C   0  0  0  0  0  0  0  0  0 87
    1.6333    3.5986   -0.5107 C   0  0  0  0  0  0  0  0  0 88
    2.8203    2.8387   -0.4973 C   0  0  0  0  0  0  0  0  0 89
    0.3133    1.5298   -0.5736 C   0  0  0  0  0  0  0  0  0 90
    1.5068    0.7673   -0.5602 C   0  0  0  0  0  0  0  0  0 91
   -1.0060   -0.5457   -0.6367 C   0  0  0  0  0  0  0  0  0 92
    0.1876   -1.3082   -0.6232 C   0  0  0  0  0  0  0  0  0 93
   -2.3194   -2.6171   -0.6995 C   0  0  0  0  0  0  0  0  0 94
   -1.1324   -3.3769   -0.6862 C   0  0  0  0  0  0  0  0  0 95
   -3.6450   -4.6897   -0.7626 C   0  0  0  0  0  0  0  0  0 96
   -2.4487   -5.4519   -0.7491 C   0  0  0  0  0  0  0  0  0 97
   -4.9574   -6.7788   -0.8257 C   0  0  0  0  0  0  0  0  0 98
   -3.7975   -7.5068   -0.8125 C   0  0  0  0  0  0  0  0  0 99
    6.7663    7.6261   -0.3322 C   0  0  0  0  0  0  0  0  0100
    7.8990    6.8984   -0.3195 C   0  0  0  0  0  0  0  0  0101
    5.4048    5.5578   -0.3961 C   0  0  0  0  0  0  0  0  0102
    6.5891    4.7988   -0.3828 C   0  0  0  0  0  0  0  0  0103
    4.0828    3.4912   -0.4590 C   0  0  0  0  0  0  0  0  0104
    5.2710    2.7307   -0.4456 C   0  0  0  0  0  0  0  0  0105
    2.7578    1.4187   -0.5221 C   0  0  0  0  0  0  0  0  0106
    3.9538    0.6548   -0.5086 C   0  0  0  0  0  0  0  0  0107
    1.4438   -0.6551   -0.5850 C   0  0  0  0  0  0  0  0  0108
    2.6323   -1.4153   -0.5716 C   0  0  0  0  0  0  0  0  0109
    7.8745    5.4488   -0.3440 C   0  0  0  0  0  0  0  0  0110
    9.0210    4.6949   -0.3314 C   0  0  0  0  0  0  0  0  0111
    6.5290    3.3832   -0.4074 C   0  0  0  0  0  0  0  0  0112
    7.7249    2.6161   -0.3940 C   0  0  0  0  0  0  0  0  0113
    5.2089    1.3064   -0.4705 C   0  0  0  0  0  0  0  0  0114
    6.3980    0.5447   -0.4571 C   0  0  0  0  0  0  0  0  0115
    3.8911   -0.7610   -0.5334 C   0  0  0  0  0  0  0  0  0116
    5.0836   -1.5220   -0.5199 C   0  0  0  0  0  0  0  0  0117
    8.9898    3.2705   -0.3556 C   0  0  0  0  0  0  0  0  0118
   10.1573    2.4925   -0.3430 C   0  0  0  0  0  0  0  0  0119
    7.6632    1.2018   -0.4187 C   0  0  0  0  0  0  0  0  0120
    8.8526    0.4394   -0.4053 C   0  0  0  0  0  0  0  0  0121
    6.3354   -0.8693   -0.4818 C   0  0  0  0  0  0  0  0  0122
    7.5375   -1.6364   -0.4683 C   0  0  0  0  0  0  0  0  0123
   10.1139    1.1024   -0.3669 C   0  0  0  0  0  0  0  0  0124
   11.3071    0.2940   -0.3542 C   0  0  0  0  0  0  0  0  0125
    8.7896   -0.9830   -0.4302 C   0  0  0  0  0  0  0  0  0126
    9.9873   -1.7558   -0.4168 C   0  0  0  0  0  0  0  0  0127
   11.2473   -1.0570   -0.3778 C   0  0  0  0  0  0  0  0  0128
   -1.3777   -8.7023   -0.7794 H   0  0  0  0  0  0  0  0  0129
    1.0933   -8.8126   -0.7273 H   0  0  0  0  0  0  0  0  0130
    3.5620   -8.9226   -0.6753 H   0  0  0  0  0  0  0  0  0131
    6.0234   -9.0393   -0.6235 H   0  0  0  0  0  0  0  0  0132
   10.8242   -3.7276   -0.4311 H   0  0  0  0  0  0  0  0  0133
    9.4992   -5.8177   -0.4945 H   0  0  0  0  0  0  0  0  0134
    8.1895   -7.9064   -0.5575 H   0  0  0  0  0  0  0  0  0135
   -7.6887    8.1280   -0.6393 H   0  0  0  0  0  0  0  0  0136
   -8.9984    6.0393   -0.7023 H   0  0  0  0  0  0  0  0  0137
  -10.3234    3.9492   -0.7657 H   0  0  0  0  0  0  0  0  0138
  -11.6580    1.8676   -0.8292 H   0  0  0  0  0  0  0  0  0139
   -5.5225    9.2609   -0.5733 H   0  0  0  0  0  0  0  0  0140
  -11.7662   -0.5778   -0.8719 H   0  0  0  0  0  0  0  0  0141
   -3.0611    9.1442   -0.5216 H   0  0  0  0  0  0  0  0  0142
  -10.6209   -2.7702   -0.8831 H   0  0  0  0  0  0  0  0  0143
   -0.5924    9.0342   -0.4695 H   0  0  0  0  0  0  0  0  0144
   -9.4858   -4.9701   -0.8947 H   0  0  0  0  0  0  0  0  0145
    1.8786    8.9239   -0.4174 H   0  0  0  0  0  0  0  0  0146
   -8.3659   -7.1673   -0.9065 H   0  0  0  0  0  0  0  0  0147
   -6.3084   -8.4888   -0.8834 H   0  0  0  0  0  0  0  0  0148
    4.3473    8.8135   -0.3654 H   0  0  0  0  0  0  0  0  0149
   -3.8464   -8.5919   -0.8314 H   0  0  0  0  0  0  0  0  0150
    6.8093    8.7104   -0.3134 H   0  0  0  0  0  0  0  0  0151
    8.8668    7.3889   -0.2903 H   0  0  0  0  0  0  0  0  0152
    9.9867    5.1917   -0.3022 H   0  0  0  0  0  0  0  0  0153
   11.1217    2.9918   -0.3137 H   0  0  0  0  0  0  0  0  0154
   12.2671    0.7994   -0.3249 H   0  0  0  0  0  0  0  0  0155
   12.1588   -1.6460   -0.3676 H   0  0  0  0  0  0  0  0  0156
   -2.2660    0.3414    2.5675 C   0  0  0  0  0  0  0  0  0157
   -2.5041   -1.0431    2.5726 C   0  0  0  0  0  0  0  0  0158
   -1.3003   -1.7931    2.5927 C   0  0  0  0  0  0  0  0  0159
    0.0302   -1.1865    2.6204 C   0  0  0  0  0  0  0  0  0160
    0.2477    0.2146    2.6304 C   0  0  0  0  0  0  0  0  0161
   -0.9553    0.9377    2.5925 C   0  0  0  0  0  0  0  0  0162
   -1.1273    2.2843    2.5770 N   0  0  0  0  0  0  0  0  0163
   -2.4241    2.4280    2.5504 N   0  0  0  0  0  0  0  0  0164
   -3.1689    1.3588    2.5484 N   0  0  0  0  0  0  0  0  0165
    1.5557    0.8414    2.6851 C   0  0  0  0  0  0  0  0  0166
   -3.8289   -1.6330    2.5472 C   0  0  0  0  0  0  0  0  0167
   -3.0157    3.7567    2.6120 C   0  0  0  0  0  0  0  0  0168
    1.8332    2.1932    2.6588 C   0  0  0  0  0  0  0  0  0169
    3.2192    2.4830    2.7135 C   0  0  0  0  0  0  0  0  0170
    3.9840    1.3557    2.7863 C   0  0  0  0  0  0  0  0  0171
    3.0383   -0.0771    2.7931 S   0  0  0  0  0  0  0  0  0172
   -5.0302   -0.9626    2.4327 C   0  0  0  0  0  0  0  0  0173
   -6.1553   -1.8208    2.4187 C   0  0  0  0  0  0  0  0  0174
   -5.8051   -3.1359    2.5282 C   0  0  0  0  0  0  0  0  0175
   -4.1092   -3.3556    2.6498 S   0  0  0  0  0  0  0  0  0176
   -1.2433   -3.1342    2.5940 N   0  0  0  0  0  0  0  0  0177
    0.3054   -3.5575    2.6238 S   0  0  0  0  0  0  0  0  0178
    1.0040   -2.1099    2.6343 N   0  0  0  0  0  0  0  0  0179
   -3.9995    3.7111    2.1523 H   0  0  0  0  0  0  0  0  0180
   -2.3620    4.4408    2.0753 H   0  0  0  0  0  0  0  0  0181
   -3.0962    4.0547    3.6571 H   0  0  0  0  0  0  0  0  0182
    1.0612    2.9449    2.5910 H   0  0  0  0  0  0  0  0  0183
    3.6273    3.4856    2.6891 H   0  0  0  0  0  0  0  0  0184
   -5.0890    0.1127    2.3453 H   0  0  0  0  0  0  0  0  0185
   -7.1770   -1.4768    2.3193 H   0  0  0  0  0  0  0  0  0186
   -6.4553   -3.9991    2.5324 H   0  0  0  0  0  0  0  0  0187
    5.0612    1.2833    2.8330 H   0  0  0  0  0  0  0  0  0188
  1  2  4  0  0  0
  1 93  4  0  0  0
  1 95  4  0  0  0
  2  7  4  0  0  0
  2  9  4  0  0  0
  3  4  4  0  0  0
  3 95  4  0  0  0
  3 97  4  0  0  0
  4  9  4  0  0  0
  4 11  4  0  0  0
  5  6  4  0  0  0
  5 97  4  0  0  0
  5 99  4  0  0  0
  6 11  4  0  0  0
  6129  1  0  0  0
  7  8  4  0  0  0
  7109  4  0  0  0
  8 13  4  0  0  0
  8 15  4  0  0  0
  9 10  4  0  0  0
 10 15  4  0  0  0
 10 17  4  0  0  0
 11 12  4  0  0  0
 12 17  4  0  0  0
 12130  1  0  0  0
 13 14  4  0  0  0
 13117  4  0  0  0
 14 19  4  0  0  0
 14 21  4  0  0  0
 15 16  4  0  0  0
 16 21  4  0  0  0
 16 23  4  0  0  0
 17 18  4  0  0  0
 18 23  2  0  0  0
 18131  1  0  0  0
 19 20  4  0  0  0
 19123  4  0  0  0
 20 25  4  0  0  0
 20 26  4  0  0  0
 21 22  4  0  0  0
 22 26  2  0  0  0
 22 27  1  0  0  0
 23 24  1  0  0  0
 24 27  2  0  0  0
 24132  1  0  0  0
 25127  4  0  0  0
 25133  1  0  0  0
 26134  1  0  0  0
 27135  1  0  0  0
 28 32  2  0  0  0
 28 34  1  0  0  0
 28136  1  0  0  0
 29 34  2  0  0  0
 29 36  4  0  0  0
 29137  1  0  0  0
 30 36  4  0  0  0
 30 38  4  0  0  0
 30138  1  0  0  0
 31 38  4  0  0  0
 31 40  2  0  0  0
 31139  1  0  0  0
 32 33  1  0  0  0
 32140  1  0  0  0
 33 42  2  0  0  0
 33 44  4  0  0  0
 34 35  4  0  0  0
 35 44  4  0  0  0
 35 46  4  0  0  0
 36 37  4  0  0  0
 37 46  4  0  0  0
 37 48  4  0  0  0
 38 39  4  0  0  0
 39 48  4  0  0  0
 39 50  4  0  0  0
 40 41  4  0  0  0
 40141  1  0  0  0
 41 50  4  0  0  0
 41 52  4  0  0  0
 42 43  4  0  0  0
 42142  1  0  0  0
 43 54  4  0  0  0
 43 56  4  0  0  0
 44 45  4  0  0  0
 45 56  4  0  0  0
 45 58  4  0  0  0
 46 47  4  0  0  0
 47 58  4  0  0  0
 47 60  4  0  0  0
 48 49  4  0  0  0
 49 60  4  0  0  0
 49 62  4  0  0  0
 50 51  4  0  0  0
 51 62  4  0  0  0
 51 64  4  0  0  0
 52 53  4  0  0  0
 52143  1  0  0  0
 53 64  4  0  0  0
 53 66  4  0  0  0
 54 55  4  0  0  0
 54144  1  0  0  0
 55 68  4  0  0  0
 55 70  4  0  0  0
 56 57  4  0  0  0
 57 70  4  0  0  0
 57 72  4  0  0  0
 58 59  4  0  0  0
 59 72  4  0  0  0
 59 74  4  0  0  0
 60 61  4  0  0  0
 61 74  4  0  0  0
 61 76  4  0  0  0
 62 63  4  0  0  0
 63 76  4  0  0  0
 63 78  4  0  0  0
 64 65  4  0  0  0
 65 78  4  0  0  0
 65 80  4  0  0  0
 66 67  2  0  0  0
 66145  1  0  0  0
 67 80  4  0  0  0
 67 82  1  0  0  0
 68 69  4  0  0  0
 68146  1  0  0  0
 69 84  4  0  0  0
 69 86  4  0  0  0
 70 71  4  0  0  0
 71 86  4  0  0  0
 71 88  4  0  0  0
 72 73  4  0  0  0
 73 88  4  0  0  0
 73 90  4  0  0  0
 74 75  4  0  0  0
 75 90  4  0  0  0
 75 92  4  0  0  0
 76 77  4  0  0  0
 77 92  4  0  0  0
 77 94  4  0  0  0
 78 79  4  0  0  0
 79 94  4  0  0  0
 79 96  4  0  0  0
 80 81  4  0  0  0
 81 96  4  0  0  0
 81 98  4  0  0  0
 82 83  2  0  0  0
 82147  1  0  0  0
 83 98  1  0  0  0
 83148  1  0  0  0
 84 85  2  0  0  0
 84149  1  0  0  0
 85100  1  0  0  0
 85102  4  0  0  0
 86 87  4  0  0  0
 87102  4  0  0  0
 87104  4  0  0  0
 88 89  4  0  0  0
 89104  4  0  0  0
 89106  4  0  0  0
 90 91  4  0  0  0
 91106  4  0  0  0
 91108  4  0  0  0
 92 93  4  0  0  0
 93108  4  0  0  0
 94 95  4  0  0  0
 96 97  4  0  0  0
 98 99  2  0  0  0
 99150  1  0  0  0
100101  2  0  0  0
100151  1  0  0  0
101110  1  0  0  0
101152  1  0  0  0
102103  4  0  0  0
103110  4  0  0  0
103112  4  0  0  0
104105  4  0  0  0
105112  4  0  0  0
105114  4  0  0  0
106107  4  0  0  0
107114  4  0  0  0
107116  4  0  0  0
108109  4  0  0  0
109116  4  0  0  0
110111  2  0  0  0
111118  4  0  0  0
111153  1  0  0  0
112113  4  0  0  0
113118  4  0  0  0
113120  4  0  0  0
114115  4  0  0  0
115120  4  0  0  0
115122  4  0  0  0
116117  4  0  0  0
117122  4  0  0  0
118119  4  0  0  0
119124  4  0  0  0
119154  1  0  0  0
120121  4  0  0  0
121124  4  0  0  0
121126  4  0  0  0
122123  4  0  0  0
123126  4  0  0  0
124125  4  0  0  0
125128  2  0  0  0
125155  1  0  0  0
126127  4  0  0  0
127128  4  0  0  0
128156  1  0  0  0
157158  4  0  0  0
157162  4  0  0  0
157165  4  0  0  0
158159  4  0  0  0
158167  1  0  0  0
159160  1  0  0  0
159177  4  0  0  0
160161  4  0  0  0
160179  4  0  0  0
161162  4  0  0  0
161166  1  0  0  0
162163  4  0  0  0
163164  4  0  0  0
164165  4  0  0  0
164168  1  0  0  0
166169  2  0  0  0
166172  1  0  0  0
167173  2  0  0  0
167176  1  0  0  0
168180  1  0  0  0
168181  1  0  0  0
168182  1  0  0  0
169170  4  0  0  0
169183  1  0  0  0
170171  2  0  0  0
170184  1  0  0  0
171172  1  0  0  0
171188  1  0  0  0
173174  4  0  0  0
173185  1  0  0  0
174175  2  0  0  0
174186  1  0  0  0
175176  1  0  0  0
175187  1  0  0  0
177178  4  0  0  0
178179  1  0  0  0
M  END
